Version 4
SHEET 1 3524 736
WIRE 144 -624 144 -640
WIRE 352 -624 352 -640
WIRE 144 -512 144 -544
WIRE 144 -512 48 -512
WIRE 352 -512 352 -544
WIRE 352 -512 256 -512
WIRE 48 -496 48 -512
WIRE 144 -496 144 -512
WIRE 256 -496 256 -512
WIRE 352 -496 352 -512
WIRE 1248 -64 1184 -64
WIRE 1360 -64 1312 -64
WIRE 128 -48 48 -48
WIRE 368 -48 208 -48
WIRE 1184 32 1184 -64
WIRE 1248 32 1184 32
WIRE 1360 32 1360 -64
WIRE 1360 32 1312 32
WIRE 1568 32 1360 32
WIRE 2576 48 2416 48
WIRE 2624 48 2576 48
WIRE 1360 64 1360 32
WIRE 2576 80 2576 48
WIRE 2704 80 2704 48
WIRE 48 160 48 -48
WIRE 80 160 48 160
WIRE 2416 160 2416 48
WIRE 2464 160 2416 160
WIRE 256 176 144 176
WIRE 368 176 368 -48
WIRE 368 176 336 176
WIRE 384 176 368 176
WIRE 1072 176 960 176
WIRE 1184 176 1184 32
WIRE 1184 176 1072 176
WIRE 1248 176 1184 176
WIRE 1360 176 1360 144
WIRE 1360 176 1312 176
WIRE 1424 176 1360 176
WIRE 2576 176 2576 160
WIRE 2576 176 2528 176
WIRE 2736 176 2576 176
WIRE 80 192 48 192
WIRE 1568 192 1568 32
WIRE 1568 192 1488 192
WIRE 1584 192 1568 192
WIRE 2416 192 2368 192
WIRE 2464 192 2416 192
WIRE 368 208 368 176
WIRE 1424 208 1376 208
WIRE 128 256 128 208
WIRE 1184 272 1184 256
WIRE 1376 304 1376 288
FLAG -288 160 Input
IOPIN -288 160 BiDir
FLAG -288 240 0
FLAG 48 -496 0
FLAG 144 -640 +16V
IOPIN 144 -640 BiDir
FLAG 144 -416 -16V
IOPIN 144 -416 BiDir
FLAG 96 144 +16V
IOPIN 96 144 BiDir
FLAG -32 192 Input
IOPIN -32 192 BiDir
FLAG 384 176 OUT_preamp
IOPIN 384 176 BiDir
FLAG 368 272 0
FLAG 256 -496 0
FLAG 352 -640 +5V
IOPIN 352 -640 BiDir
FLAG 352 -416 -5V
IOPIN 352 -416 BiDir
FLAG 1456 160 +5V
IOPIN 1456 160 BiDir
FLAG 1456 224 -5V
IOPIN 1456 224 BiDir
FLAG 1184 272 0
FLAG 1376 304 0
FLAG 1584 192 OUT_RAUCH_1
IOPIN 1584 192 BiDir
FLAG 128 256 0
FLAG 896 176 OUT_preamp
IOPIN 896 176 BiDir
FLAG 1072 176 IN_RAUC1
FLAG 96 208 -16V
IOPIN 96 208 BiDir
FLAG 2496 208 -5V
IOPIN 2496 208 BiDir
FLAG 2496 144 +5V
IOPIN 2496 144 BiDir
FLAG 2736 176 OUT_AMPLI_1
IOPIN 2736 176 BiDir
FLAG 2416 192 IN_ampli1
FLAG 2704 80 0
FLAG 1968 272 Filter_output
IOPIN 1968 272 BiDir
FLAG 1968 352 0
FLAG 2304 192 Filter_output
IOPIN 2304 192 BiDir
SYMBOL res 352 160 R90
WINDOW 0 0 56 VBottom 2
WINDOW 3 32 56 VTop 2
SYMATTR InstName R2
SYMATTR Value 1K
SYMBOL Opamps\\ADA4530-1 112 176 R0
WINDOW 3 -2 114 Left 2
SYMATTR InstName U1
SYMBOL res 1344 48 R0
SYMATTR InstName R1
SYMATTR Value 200K
SYMBOL cap 1312 160 R90
WINDOW 0 0 32 VBottom 2
WINDOW 3 32 32 VTop 2
SYMATTR InstName C2
SYMATTR Value 1µ
SYMBOL cap 1312 16 R90
WINDOW 0 0 32 VBottom 2
WINDOW 3 32 32 VTop 2
SYMATTR InstName C3
SYMATTR Value 120n
SYMBOL cap 1312 -80 R90
WINDOW 0 0 32 VBottom 2
WINDOW 3 32 32 VTop 2
SYMATTR InstName C4
SYMATTR Value 22n
SYMBOL res 1168 160 R0
SYMATTR InstName R3
SYMATTR Value 100k
SYMBOL Opamps\\AD8642 1456 128 R0
SYMATTR InstName U2
SYMBOL voltage -288 144 R0
WINDOW 123 0 0 Left 0
WINDOW 39 0 0 Left 0
WINDOW 3 24 96 Invisible 2
SYMATTR Value PWL file=..\Simulation_signals\Stimuli\sine_7_20u.txt
SYMATTR InstName V3
SYMBOL voltage 144 -512 R0
WINDOW 3 24 96 Invisible 2
WINDOW 123 0 0 Left 0
WINDOW 39 0 0 Left 0
SYMATTR Value 16
SYMATTR InstName V2
SYMBOL voltage 144 -640 R0
WINDOW 3 24 96 Invisible 2
WINDOW 123 0 0 Left 0
WINDOW 39 0 0 Left 0
SYMATTR Value 16
SYMATTR InstName V1
SYMBOL res 64 176 R90
WINDOW 0 0 56 VBottom 2
WINDOW 3 32 56 VTop 2
SYMATTR InstName R8
SYMATTR Value 4m
SYMBOL res 224 -64 R90
WINDOW 0 0 56 VBottom 2
WINDOW 3 32 56 VTop 2
SYMATTR InstName R9
SYMATTR Value 150
SYMBOL cap 352 208 R0
SYMATTR InstName C1
SYMATTR Value 100n
SYMBOL voltage 352 -512 R0
WINDOW 3 24 96 Invisible 2
WINDOW 123 0 0 Left 0
WINDOW 39 0 0 Left 0
SYMATTR Value 5
SYMATTR InstName V4
SYMBOL voltage 352 -640 R0
WINDOW 3 24 96 Invisible 2
WINDOW 123 0 0 Left 0
WINDOW 39 0 0 Left 0
SYMATTR Value 5
SYMATTR InstName V5
SYMBOL res 1360 192 R0
SYMATTR InstName R4
SYMATTR Value 1m
SYMBOL cap 960 160 R90
WINDOW 0 0 32 VBottom 2
WINDOW 3 32 32 VTop 2
SYMATTR InstName C5
SYMATTR Value 10µ
SYMBOL Opamps\\AD8642 2496 112 R0
WINDOW 0 26 44 Left 2
SYMATTR InstName U3
SYMBOL res 2560 64 R0
SYMATTR InstName R5
SYMATTR Value 100k
SYMBOL res 2720 32 R90
WINDOW 0 0 56 VBottom 2
WINDOW 3 32 56 VTop 2
SYMATTR InstName R6
SYMATTR Value 10k
SYMBOL cap 2368 176 R90
WINDOW 0 0 32 VBottom 2
WINDOW 3 32 32 VTop 2
SYMATTR InstName C6
SYMATTR Value 10µ
SYMBOL voltage 1968 256 R0
WINDOW 123 0 0 Left 0
WINDOW 39 0 0 Left 0
WINDOW 3 24 96 Invisible 2
SYMATTR Value PWL file=..\Simulation_signals\Stimuli\sine_7_20u.txt
SYMATTR InstName V6
TEXT -376 344 Left 2 !.tran 0 1 0 0.1m
TEXT 80 -160 Left 2 ;Input stage: Follower opamp
TEXT 1216 -168 Left 2 ;Rauch filter
TEXT 2464 -160 Left 2 ;Amplifier stage
TEXT -352 24 Left 2 ;Input source
TEXT 160 -808 Left 2 ;AOP power suplies
TEXT 432 456 Left 2 ;.wave filename Nbits samplerate knot
TEXT 320 584 Left 2 !.wave "../Simulation_signals/Outputs/OUT_preamp.wav" 32 1k OUT_preamp
TEXT 312 632 Left 2 !.wave "../Simulation_signals/Outputs/OUT_RAUCH_1.wav" 32 1k OUT_RAUCH_1
TEXT 528 528 Left 2 ;Spice command to save plot
TEXT 1848 32 Left 2 ;8th order filter ouput
TEXT 1352 424 Left 2 ;OUT_RAUCH_1 is saved in wav file and imported into python to add filter
RECTANGLE Normal -160 48 -400 400 2
RECTANGLE Normal 656 -144 -160 400 2
RECTANGLE Normal 1856 -144 656 400 2
RECTANGLE Normal -64 -784 544 -256 2
RECTANGLE Normal 2960 -144 2096 400 2
RECTANGLE Normal 2096 48 1856 400 2
