Version 4
SHEET 1 3524 720
WIRE 304 -592 304 -608
WIRE 1392 -496 1392 -512
WIRE 304 -480 304 -512
WIRE 304 -480 208 -480
WIRE 208 -464 208 -480
WIRE 304 -464 304 -480
WIRE 1392 -384 1392 -416
WIRE 1392 -384 1296 -384
WIRE 1296 -368 1296 -384
WIRE 1392 -368 1392 -384
WIRE 1376 -96 1312 -96
WIRE 1488 -96 1440 -96
WIRE 256 -80 176 -80
WIRE 496 -80 336 -80
WIRE 1312 0 1312 -96
WIRE 1376 0 1312 0
WIRE 1488 0 1488 -96
WIRE 1488 0 1440 0
WIRE 1696 0 1488 0
WIRE 2576 16 2416 16
WIRE 2624 16 2576 16
WIRE 1488 32 1488 0
WIRE 2576 48 2576 16
WIRE 2704 48 2704 16
WIRE 176 128 176 -80
WIRE 208 128 176 128
WIRE 2416 128 2416 16
WIRE 2464 128 2416 128
WIRE 384 144 272 144
WIRE 496 144 496 -80
WIRE 496 144 464 144
WIRE 512 144 496 144
WIRE 1200 144 1088 144
WIRE 1312 144 1312 0
WIRE 1312 144 1200 144
WIRE 1376 144 1312 144
WIRE 1488 144 1488 112
WIRE 1488 144 1440 144
WIRE 1552 144 1488 144
WIRE 2576 144 2576 128
WIRE 2576 144 2528 144
WIRE 2736 144 2576 144
WIRE 208 160 176 160
WIRE 1696 160 1696 0
WIRE 1696 160 1616 160
WIRE 1712 160 1696 160
WIRE 2400 160 2352 160
WIRE 2464 160 2400 160
WIRE 496 176 496 144
WIRE 1552 176 1504 176
WIRE 256 224 256 176
WIRE 1312 240 1312 224
WIRE 1504 272 1504 256
FLAG -752 0 Input
IOPIN -752 0 BiDir
FLAG -752 80 0
FLAG 208 -464 0
FLAG 304 -608 +16V
IOPIN 304 -608 BiDir
FLAG 304 -384 -16V
IOPIN 304 -384 BiDir
FLAG 224 112 +16V
IOPIN 224 112 BiDir
FLAG 96 160 Input
IOPIN 96 160 BiDir
FLAG 512 144 OUT_preamp
IOPIN 512 144 BiDir
FLAG 496 240 0
FLAG 1296 -368 0
FLAG 1392 -512 +5V
IOPIN 1392 -512 BiDir
FLAG 1392 -288 -5V
IOPIN 1392 -288 BiDir
FLAG 1584 128 +5V
IOPIN 1584 128 BiDir
FLAG 1584 192 -5V
IOPIN 1584 192 BiDir
FLAG 1312 240 0
FLAG 1504 272 0
FLAG 1712 160 OUT_RAUCH_1
IOPIN 1712 160 BiDir
FLAG 256 224 0
FLAG 1024 144 OUT_preamp
IOPIN 1024 144 BiDir
FLAG 1200 144 IN_RAUC1
FLAG 224 176 -16V
IOPIN 224 176 BiDir
FLAG 2496 176 -5V
IOPIN 2496 176 BiDir
FLAG 2496 112 +5V
IOPIN 2496 112 BiDir
FLAG 2736 144 OUT_AMPLI_1
IOPIN 2736 144 BiDir
FLAG 2400 160 IN_ampli1
FLAG 2704 48 0
FLAG 2288 160 Input
IOPIN 2288 160 BiDir
SYMBOL res 480 128 R90
WINDOW 0 0 56 VBottom 2
WINDOW 3 32 56 VTop 2
SYMATTR InstName R2
SYMATTR Value 1K
SYMBOL Opamps\\ADA4530-1 240 144 R0
WINDOW 3 -2 114 Left 2
SYMATTR InstName U1
SYMBOL res 1472 16 R0
SYMATTR InstName R1
SYMATTR Value 200K
SYMBOL cap 1440 128 R90
WINDOW 0 0 32 VBottom 2
WINDOW 3 32 32 VTop 2
SYMATTR InstName C2
SYMATTR Value 1µ
SYMBOL cap 1440 -16 R90
WINDOW 0 0 32 VBottom 2
WINDOW 3 32 32 VTop 2
SYMATTR InstName C3
SYMATTR Value 120n
SYMBOL cap 1440 -112 R90
WINDOW 0 0 32 VBottom 2
WINDOW 3 32 32 VTop 2
SYMATTR InstName C4
SYMATTR Value 22n
SYMBOL res 1296 128 R0
SYMATTR InstName R3
SYMATTR Value 100k
SYMBOL Opamps\\AD8642 1584 96 R0
SYMATTR InstName U2
SYMBOL voltage -752 -16 R0
WINDOW 123 0 0 Left 0
WINDOW 39 0 0 Left 0
WINDOW 3 24 96 Invisible 2
SYMATTR Value PWL file=..\Simulation_signals\Stimuli\sine_7_20u.txt
SYMATTR InstName V3
SYMBOL voltage 304 -480 R0
WINDOW 3 24 96 Invisible 2
WINDOW 123 0 0 Left 0
WINDOW 39 0 0 Left 0
SYMATTR Value 16
SYMATTR InstName V2
SYMBOL voltage 304 -608 R0
WINDOW 3 24 96 Invisible 2
WINDOW 123 0 0 Left 0
WINDOW 39 0 0 Left 0
SYMATTR Value 16
SYMATTR InstName V1
SYMBOL res 192 144 R90
WINDOW 0 0 56 VBottom 2
WINDOW 3 32 56 VTop 2
SYMATTR InstName R8
SYMATTR Value 4m
SYMBOL res 352 -96 R90
WINDOW 0 0 56 VBottom 2
WINDOW 3 32 56 VTop 2
SYMATTR InstName R9
SYMATTR Value 150
SYMBOL cap 480 176 R0
SYMATTR InstName C1
SYMATTR Value 100n
SYMBOL voltage 1392 -384 R0
WINDOW 3 24 96 Invisible 2
WINDOW 123 0 0 Left 0
WINDOW 39 0 0 Left 0
SYMATTR Value 5
SYMATTR InstName V4
SYMBOL voltage 1392 -512 R0
WINDOW 3 24 96 Invisible 2
WINDOW 123 0 0 Left 0
WINDOW 39 0 0 Left 0
SYMATTR Value 5
SYMATTR InstName V5
SYMBOL res 1488 160 R0
SYMATTR InstName R4
SYMATTR Value 1m
SYMBOL cap 1088 128 R90
WINDOW 0 0 32 VBottom 2
WINDOW 3 32 32 VTop 2
SYMATTR InstName C5
SYMATTR Value 10µ
SYMBOL Opamps\\AD8642 2496 80 R0
WINDOW 0 26 44 Left 2
SYMATTR InstName U3
SYMBOL res 2560 32 R0
SYMATTR InstName R5
SYMATTR Value 100k
SYMBOL res 2720 0 R90
WINDOW 0 0 56 VBottom 2
WINDOW 3 32 56 VTop 2
SYMATTR InstName R6
SYMATTR Value 10k
SYMBOL cap 2352 144 R90
WINDOW 0 0 32 VBottom 2
WINDOW 3 32 32 VTop 2
SYMATTR InstName C6
SYMATTR Value 10µ
TEXT -552 560 Left 2 !.tran 0 0.5 0 10u
TEXT 144 -160 Left 2 ;Input stage: Follower opamp
