Version 4
SHEET 1 3524 680
WIRE 304 -592 304 -608
WIRE 1392 -496 1392 -512
WIRE 304 -480 304 -512
WIRE 304 -480 208 -480
WIRE 208 -464 208 -480
WIRE 304 -464 304 -480
WIRE 1392 -384 1392 -416
WIRE 1392 -384 1296 -384
WIRE 1296 -368 1296 -384
WIRE 1392 -368 1392 -384
WIRE 1376 -96 1328 -96
WIRE 1488 -96 1440 -96
WIRE 256 -80 112 -80
WIRE 496 -80 336 -80
WIRE 1328 0 1328 -96
WIRE 1328 0 1312 0
WIRE 1376 0 1328 0
WIRE 1488 0 1488 -96
WIRE 1488 0 1440 0
WIRE 1696 0 1488 0
WIRE 1488 32 1488 0
WIRE 112 96 112 -80
WIRE 144 96 112 96
WIRE 384 144 272 144
WIRE 496 144 496 -80
WIRE 496 144 464 144
WIRE 512 144 496 144
WIRE 1088 144 1072 144
WIRE 1216 144 1152 144
WIRE 1312 144 1312 0
WIRE 1312 144 1216 144
WIRE 1376 144 1312 144
WIRE 1488 144 1488 112
WIRE 1488 144 1440 144
WIRE 1552 144 1488 144
WIRE 1696 160 1696 0
WIRE 1696 160 1616 160
WIRE 1712 160 1696 160
WIRE 496 176 496 144
WIRE 1552 176 1504 176
WIRE 3424 208 3168 208
WIRE 1312 240 1312 224
WIRE 1504 240 1504 176
WIRE 3168 352 3168 288
WIRE 3168 352 2992 352
WIRE 3264 352 3168 352
WIRE 3424 368 3424 208
WIRE 3424 368 3328 368
WIRE 3264 384 3072 384
WIRE 2912 448 2912 352
WIRE 2960 448 2912 448
WIRE 3072 448 3072 384
WIRE 3072 448 3040 448
WIRE 3088 448 3072 448
FLAG 3088 528 0
FLAG 2912 528 0
FLAG 3296 400 0
FLAG 3296 256 0
FLAG 3424 368 Out
IOPIN 3424 368 Out
FLAG -752 0 Input
IOPIN -752 0 BiDir
FLAG -752 80 0
FLAG 208 -464 0
FLAG 304 -608 +16V
IOPIN 304 -608 BiDir
FLAG 304 -384 -16V
IOPIN 304 -384 BiDir
FLAG 208 208 -16V
IOPIN 208 208 BiDir
FLAG 208 80 +16V
IOPIN 208 80 BiDir
FLAG 64 192 Input
IOPIN 64 192 BiDir
FLAG 512 144 OUT_preamp
IOPIN 512 144 BiDir
FLAG 496 240 0
FLAG 1072 144 OUT_preamp
IOPIN 1072 144 BiDir
FLAG 1296 -368 0
FLAG 1392 -512 +5V
IOPIN 1392 -512 BiDir
FLAG 1392 -288 -5V
IOPIN 1392 -288 BiDir
FLAG 1584 128 +5V
IOPIN 1584 128 BiDir
FLAG 1584 192 -5V
IOPIN 1584 192 BiDir
FLAG 1312 240 0
FLAG 1504 240 0
FLAG 1712 160 OUT_RAUCH_1
IOPIN 1712 160 BiDir
FLAG 1216 144 IN_RAUCH_1
SYMBOL res 480 128 R90
WINDOW 0 0 56 VBottom 2
WINDOW 3 32 56 VTop 2
SYMATTR InstName R2
SYMATTR Value 1K
SYMBOL Opamps\\ADA4530-1 208 144 R0
SYMATTR InstName U1
SYMBOL res 1472 16 R0
SYMATTR InstName R1
SYMATTR Value 200K
SYMBOL cap 1440 128 R90
WINDOW 0 0 32 VBottom 2
WINDOW 3 32 32 VTop 2
SYMATTR InstName C2
SYMATTR Value 1µ
SYMBOL cap 1440 -16 R90
WINDOW 0 0 32 VBottom 2
WINDOW 3 32 32 VTop 2
SYMATTR InstName C3
SYMATTR Value 120n
SYMBOL cap 1440 -112 R90
WINDOW 0 0 32 VBottom 2
WINDOW 3 32 32 VTop 2
SYMATTR InstName C4
SYMATTR Value 22n
SYMBOL res 1296 128 R0
SYMATTR InstName R3
SYMATTR Value 100k
SYMBOL Opamps\\AD8642 1584 96 R0
SYMATTR InstName U2
SYMBOL Opamps\\AD8642 3296 304 R0
SYMATTR InstName U3
SYMBOL res 3008 336 R90
WINDOW 0 0 56 VBottom 2
WINDOW 3 32 56 VTop 2
SYMATTR InstName R4
SYMATTR Value 240K
SYMBOL res 3104 544 R180
WINDOW 0 36 76 Left 2
WINDOW 3 36 40 Left 2
SYMATTR InstName R5
SYMATTR Value 120K
SYMBOL res 3056 432 R90
WINDOW 0 0 56 VBottom 2
WINDOW 3 32 56 VTop 2
SYMATTR InstName R6
SYMATTR Value 270K
SYMBOL res 3152 192 R0
SYMATTR InstName R7
SYMATTR Value 150K
SYMBOL voltage 2912 432 R0
WINDOW 123 0 0 Left 0
WINDOW 39 0 0 Left 0
SYMATTR InstName V6
SYMATTR Value 5
SYMBOL voltage 3296 352 R180
WINDOW 0 24 96 Left 2
WINDOW 3 24 16 Left 2
WINDOW 123 0 0 Left 0
WINDOW 39 0 0 Left 0
SYMATTR InstName V7
SYMATTR Value 5
SYMBOL voltage -752 -16 R0
WINDOW 123 0 0 Left 0
WINDOW 39 0 0 Left 0
SYMATTR InstName V3
SYMATTR Value SINE(0 20u 10)
SYMBOL voltage 304 -480 R0
WINDOW 3 24 96 Invisible 2
WINDOW 123 0 0 Left 0
WINDOW 39 0 0 Left 0
SYMATTR InstName V2
SYMATTR Value 16
SYMBOL voltage 304 -608 R0
WINDOW 3 24 96 Invisible 2
WINDOW 123 0 0 Left 0
WINDOW 39 0 0 Left 0
SYMATTR InstName V1
SYMATTR Value 16
SYMBOL res 160 176 R90
WINDOW 0 0 56 VBottom 2
WINDOW 3 32 56 VTop 2
SYMATTR InstName R8
SYMATTR Value 4m
SYMBOL res 352 -96 R90
WINDOW 0 0 56 VBottom 2
WINDOW 3 32 56 VTop 2
SYMATTR InstName R9
SYMATTR Value 150
SYMBOL cap 480 176 R0
SYMATTR InstName C1
SYMATTR Value 100n
SYMBOL cap 1152 128 R90
WINDOW 0 0 32 VBottom 2
WINDOW 3 32 32 VTop 2
SYMATTR InstName C5
SYMATTR Value 1µ
SYMBOL voltage 1392 -384 R0
WINDOW 3 24 96 Invisible 2
WINDOW 123 0 0 Left 0
WINDOW 39 0 0 Left 0
SYMATTR InstName V4
SYMATTR Value 5
SYMBOL voltage 1392 -512 R0
WINDOW 3 24 96 Invisible 2
WINDOW 123 0 0 Left 0
WINDOW 39 0 0 Left 0
SYMATTR InstName V5
SYMATTR Value 5
TEXT -672 200 Left 2 !.tran 0 0.5 0 5u
LINE Normal -832 -144 -832 128 2
LINE Normal -640 -144 -832 -144 2
LINE Normal -640 144 -640 -144 2
LINE Normal -832 144 -640 144 2
LINE Normal -832 112 -832 144 2
LINE Normal -832 112 -832 112 2
LINE Normal -832 112 -832 112 2
LINE Normal -832 128 -832 112 2
LINE Normal -832 128 -832 128 2
LINE Normal 800 352 -96 352 2
LINE Normal 800 -128 800 352 2
LINE Normal 64 -128 800 -128 2
LINE Normal -112 -128 64 -128 2
LINE Normal -112 352 -112 -128 2
LINE Normal -96 352 -112 352 2
LINE Normal -96 352 -96 352 2
LINE Normal 1984 -128 816 -128 2
LINE Normal 1984 336 1984 -128 2
LINE Normal 832 336 1984 336 2
LINE Normal 816 -128 832 336 2
LINE Normal 816 -128 816 -128 2
